 120
Zigzag Carbon Nanotube
C      3.914435    0.000000    0.000000
C      3.166845    0.000000    2.300847
C      1.209627    0.000000    3.722849
C     -1.209627    0.000000    3.722849
C     -3.166845    0.000000    2.300847
C     -3.914435    0.000000    0.000000
C     -3.166845    0.000000   -2.300847
C     -1.209627    0.000000   -3.722849
C      1.209627    0.000000   -3.722849
C      3.166845    0.000000   -2.300847
C      3.722849   -0.710000    1.209627
C      2.300847   -0.710000    3.166845
C     -0.000000   -0.710000    3.914435
C     -2.300847   -0.710000    3.166845
C     -3.722849   -0.710000    1.209627
C     -3.722849   -0.710000   -1.209627
C     -2.300847   -0.710000   -3.166845
C     -0.000000   -0.710000   -3.914435
C      2.300847   -0.710000   -3.166845
C      3.722849   -0.710000   -1.209627
C      3.722849   -2.130000    1.209627
C      2.300847   -2.130000    3.166845
C     -0.000000   -2.130000    3.914435
C     -2.300847   -2.130000    3.166845
C     -3.722849   -2.130000    1.209627
C     -3.722849   -2.130000   -1.209627
C     -2.300847   -2.130000   -3.166845
C     -0.000000   -2.130000   -3.914435
C      2.300847   -2.130000   -3.166845
C      3.722849   -2.130000   -1.209627
C      3.914435   -2.840000    0.000000
C      3.166845   -2.840000    2.300847
C      1.209627   -2.840000    3.722849
C     -1.209627   -2.840000    3.722849
C     -3.166845   -2.840000    2.300847
C     -3.914435   -2.840000    0.000000
C     -3.166845   -2.840000   -2.300847
C     -1.209627   -2.840000   -3.722849
C      1.209627   -2.840000   -3.722849
C      3.166845   -2.840000   -2.300847
C      3.914435   -4.260000    0.000000
C      3.166845   -4.260000    2.300847
C      1.209627   -4.260000    3.722849
C     -1.209627   -4.260000    3.722849
C     -3.166845   -4.260000    2.300847
C     -3.914435   -4.260000    0.000000
C     -3.166845   -4.260000   -2.300847
C     -1.209627   -4.260000   -3.722849
C      1.209627   -4.260000   -3.722849
C      3.166845   -4.260000   -2.300847
C      3.722849   -4.970000    1.209627
C      2.300847   -4.970000    3.166845
C     -0.000000   -4.970000    3.914435
C     -2.300847   -4.970000    3.166845
C     -3.722849   -4.970000    1.209627
C     -3.722849   -4.970000   -1.209627
C     -2.300847   -4.970000   -3.166845
C     -0.000000   -4.970000   -3.914435
C      2.300847   -4.970000   -3.166845
C      3.722849   -4.970000   -1.209627
C      3.722849   -6.390000    1.209627
C      2.300847   -6.390000    3.166845
C     -0.000000   -6.390000    3.914435
C     -2.300847   -6.390000    3.166845
C     -3.722849   -6.390000    1.209627
C     -3.722849   -6.390000   -1.209627
C     -2.300847   -6.390000   -3.166845
C     -0.000000   -6.390000   -3.914435
C      2.300847   -6.390000   -3.166845
C      3.722849   -6.390000   -1.209627
C      3.914435   -7.100000    0.000000
C      3.166845   -7.100000    2.300847
C      1.209627   -7.100000    3.722849
C     -1.209627   -7.100000    3.722849
C     -3.166845   -7.100000    2.300847
C     -3.914435   -7.100000    0.000000
C     -3.166845   -7.100000   -2.300847
C     -1.209627   -7.100000   -3.722849
C      1.209627   -7.100000   -3.722849
C      3.166845   -7.100000   -2.300847
C      3.914435   -8.520000    0.000000
C      3.166845   -8.520000    2.300847
C      1.209627   -8.520000    3.722849
C     -1.209627   -8.520000    3.722849
C     -3.166845   -8.520000    2.300847
C     -3.914435   -8.520000    0.000000
C     -3.166845   -8.520000   -2.300847
C     -1.209627   -8.520000   -3.722849
C      1.209627   -8.520000   -3.722849
C      3.166845   -8.520000   -2.300847
C      3.722849   -9.230000    1.209627
C      2.300847   -9.230000    3.166845
C     -0.000000   -9.230000    3.914435
C     -2.300847   -9.230000    3.166845
C     -3.722849   -9.230000    1.209627
C     -3.722849   -9.230000   -1.209627
C     -2.300847   -9.230000   -3.166845
C     -0.000000   -9.230000   -3.914435
C      2.300847   -9.230000   -3.166845
C      3.722849   -9.230000   -1.209627
C      3.722849  -10.650000    1.209627
C      2.300847  -10.650000    3.166845
C     -0.000000  -10.650000    3.914435
C     -2.300847  -10.650000    3.166845
C     -3.722849  -10.650000    1.209627
C     -3.722849  -10.650000   -1.209627
C     -2.300847  -10.650000   -3.166845
C     -0.000000  -10.650000   -3.914435
C      2.300847  -10.650000   -3.166845
C      3.722849  -10.650000   -1.209627
C      3.914435  -11.360000    0.000000
C      3.166845  -11.360000    2.300847
C      1.209627  -11.360000    3.722849
C     -1.209627  -11.360000    3.722849
C     -3.166845  -11.360000    2.300847
C     -3.914435  -11.360000    0.000000
C     -3.166845  -11.360000   -2.300847
C     -1.209627  -11.360000   -3.722849
C      1.209627  -11.360000   -3.722849
C      3.166845  -11.360000   -2.300847
